9bus.cf
Case 9
BUS DATA FOLLOWS
    1 BUS1 1  1  3 1   0   0  0 0 0 0 0 0 0 0 0    	
	2 BUS2 1  1  2 1   0   0  0 163 0 0 0 0 0 0 0    		   
	3 BUS3 1  1  2 1   0   0  0 85 0 0 0 0 0 0 0    		   
	4 BUS4 1  1  0 1   0   0  0 0 0 0 0 0 0 0 0    		   
	5 BUS5 1  1  0 1   0  91 30 0 0 0 0 0 0 0 0   		   
    6 BUS6 1  1  0 1   0   0  0 0 0 0 0 0 0 0 0		   
    7 BUS7 1  1  0 1   0 100 35 0 0 0 0 0 0 0 0		   
    8 BUS8 1  1  0 1   0   0  0 0 0 0 0 0 0 0 0
    9 BUS9 1  1  0 1   0 125 50 0 0 0 0 0 0 0 0	
-999
BRANCH DATA FOLLOWS
 1   4   1  1 1 0 0      0.0576  0       250 
 4   5   1  1 1 0 0.017  0.092   0.158   250 
 5   6   1  1 1 0 0.039  0.17    0.358   150 
 3   6   1  1 1 0 0      0.0586  0       40 
 6   7   1  1 1 0 0.0119 0.1008  0.209   150 
 7   8   1  1 1 0 0.0085 0.072   0.149   250 
 8   2   1  1 1 0 0      0.0625  0       250 
 8   9   1  1 1 0 0.032  0.161   0.306   250
 9   4   1  1 1 0 0.01   0.085   0.176   250
-999
GENERATOR DATA FOLLOWS
(Bus Pmax Pmin Qmax Qmin a b c)
 1 250 10 300 -300 0.11 5 150
 2 50 50 300 -300 0.085 1.2 600
 3 270 10 300 -300 0.1225 1 335
-99
INTERCHANGE DATA FOLLOWS
-9
TIE LINE DATA FOLLOWS
-999
LOSS ZONE DATA FOLLOWS
-99
END OF DATA




